*DSSAT Cropping System Model Ver. 4.8.0.015   -develop    DEC 06, 2022; 10:03:43

 Unit  Filename
  501  OPCLR
   21  FILEIO
   11  FILEW
  115  OUTINFO
  502  SIMCDE
   25  DSPRO
   22  DTACDE
  503  RUNLST
   93  OUTO
   10  FILEC
   39  OUTG
   40  OUTPN
  504  OUTS
   89  SEVAL
  505  FILECO2
   52  OUTWTH
  506  FILEF
  114  ERRORO
   15  ERRORX
  119  WARNING.OUT
